ULAE714/ssdMT_ULAE714.dss
New line.mt682840 phases=3 bus1=183562592.1.2.3 bus2=183562593.1.2.3 linecode=CAB107_3_3_3 length=0.025791 units=km 
New line.mt682847 phases=3 bus1=183562592.1.2.3 bus2=1633699B.1.2.3 linecode=CAB103_3_3_3 length=0.005828000000000001 units=km 
New line.mt682854 phases=3 bus1=183562592.1.2.3 bus2=1633720B.1.2.3 linecode=CAB103_3_3_3 length=0.026384 units=km 
New line.mt682861 phases=3 bus1=1633713B.1.2.3 bus2=183562592.1.2.3 linecode=CAB107_3_3_3 length=0.012199 units=km 
New line.mt682868 phases=3 bus1=1633720B.1.2.3 bus2=183562594.1.2.3 linecode=CAB103_3_3_3 length=0.031381 units=km 
New line.mt682875 phases=3 bus1=183562590.1.2.3 bus2=1633713B.1.2.3 linecode=CAB107_3_3_3 length=0.032782 units=km 
New line.mt682882 phases=3 bus1=1633755B.1.2.3 bus2=183562590.1.2.3 linecode=CAB107_3_3_3 length=0.030591 units=km 
New line.mt683701 phases=3 bus1=1635890B.1.2.3 bus2=1633755B.1.2.3 linecode=CAB107_3_3_3 length=0.03358 units=km 
New line.mt683708 phases=3 bus1=183562589.1.2.3 bus2=1635883B.1.2.3 linecode=CAB103_3_3_3 length=0.012799 units=km 
New line.mt683715 phases=3 bus1=183562589.1.2.3 bus2=1635890B.1.2.3 linecode=CAB107_3_3_3 length=0.0064 units=km 
New line.mt683722 phases=3 bus1=183562589.1.2.3 bus2=1635911B.1.2.3 linecode=CAB103_3_3_3 length=0.029188 units=km 
New line.mt683729 phases=3 bus1=1635911B.1.2.3 bus2=183562591.1.2.3 linecode=CAB103_3_3_3 length=0.028001 units=km 
New line.mt683736 phases=3 bus1=1635918B.1.2.3 bus2=183562589.1.2.3 linecode=CAB107_3_3_3 length=0.024398 units=km 
New line.mt683743 phases=3 bus1=1635932B.1.2.3 bus2=1635918B.1.2.3 linecode=CAB107_3_3_3 length=0.030787 units=km 
New line.mt683750 phases=3 bus1=183562588.1.2.3 bus2=1635932B.1.2.3 linecode=CAB107_3_3_3 length=0.031603 units=km 
New line.mt684954 phases=3 bus1=1638284B.1.2.3 bus2=183562585.1.2.3 linecode=CAB102_3_3_3 length=0.028 units=km 
New line.mt684961 phases=3 bus1=1638291B.1.2.3 bus2=1638284B.1.2.3 linecode=CAB102_3_3_3 length=0.006078999999999999 units=km 
New line.mt684968 phases=3 bus1=183562584.1.2.3 bus2=1638291B.1.2.3 linecode=CAB102_3_3_3 length=0.032995 units=km 
New line.mt684982 phases=3 bus1=1638368B.1.2.3 bus2=183562588.1.2.3 linecode=CABA08_3_3_3 length=0.028001 units=km 
New line.mt684989 phases=3 bus1=1638375B.1.2.3 bus2=1638361B.1.2.3 linecode=CABA06_3_3_3 length=0.027186 units=km 
New line.mt684996 phases=3 bus1=183562587.1.2.3 bus2=1638368B.1.2.3 linecode=CABA08_3_3_3 length=0.012199 units=km 
New line.mt685003 phases=3 bus1=183562587.1.2.3 bus2=1638375B.1.2.3 linecode=CABA06_3_3_3 length=0.005382 units=km 
New line.mt685010 phases=3 bus1=183562587.1.2.3 bus2=153150563.1.2.3 linecode=CABA06_3_3_3 length=0.030444 units=km 
New line.mt685017 phases=3 bus1=126337348.1.2.3 bus2=183562587.1.2.3 linecode=CABA08_3_3_3 length=0.016391 units=km 
New line.mt685024 phases=3 bus1=126337425.1.2.3 bus2=126337432.1.2.3 linecode=CAB103_3_3_3 length=0.018017 units=km 
New line.mt685031 phases=3 bus1=183562586.1.2.3 bus2=126337348.1.2.3 linecode=CABA08_3_3_3 length=0.029393 units=km 
New line.mt685038 phases=3 bus1=183562583.1.2.3 bus2=183562586.1.2.3 linecode=CABA08_3_3_3 length=0.028582999999999997 units=km 
New line.mt685045 phases=3 bus1=1638424B.1.2.3 bus2=183562583.1.2.3 linecode=CAB107_3_3_3 length=0.028 units=km 
New line.mt685052 phases=3 bus1=1638431B.1.2.3 bus2=183562584.1.2.3 linecode=CAB103_3_3_3 length=0.030787 units=km 
New line.mt685059 phases=3 bus1=183562582.1.2.3 bus2=1638424B.1.2.3 linecode=CAB107_3_3_3 length=0.023008 units=km 
New line.mt685066 phases=3 bus1=183562582.1.2.3 bus2=1638431B.1.2.3 linecode=CAB103_3_3_3 length=0.0064 units=km 
New line.mt685073 phases=3 bus1=183562582.1.2.3 bus2=1638452B.1.2.3 linecode=CAB103_3_3_3 length=0.027186 units=km 
New line.mt685080 phases=3 bus1=1638445B.1.2.3 bus2=183562582.1.2.3 linecode=CAB107_3_3_3 length=0.0064 units=km 
New line.mt685087 phases=3 bus1=1638459B.1.2.3 bus2=1638445B.1.2.3 linecode=CAB107_3_3_3 length=0.031381 units=km 
New line.mt685220 phases=3 bus1=1638753B.1.2.3 bus2=126337537.1.2.3 linecode=CAB107_3_3_3 length=0.039384 units=km 
New line.mt685878 phases=3 bus1=1640237B.1.2.3 bus2=1638753B.1.2.3 linecode=CAB107_3_3_3 length=0.029393 units=km 
New line.mt685885 phases=3 bus1=1640251B.1.2.3 bus2=1640237B.1.2.3 linecode=CAB107_3_3_3 length=0.004997 units=km 
New line.mt685892 phases=3 bus1=126337530.1.2.3 bus2=1640251B.1.2.3 linecode=CAB107_3_3_3 length=0.024398 units=km 
New line.mt685899 phases=3 bus1=126337530.1.2.3 bus2=1640279B.1.2.3 linecode=CAB107_3_3_3 length=0.027186 units=km 
New line.mt685906 phases=3 bus1=1640279B.1.2.3 bus2=1640286B.1.2.3 linecode=CAB107_3_3_3 length=0.026384 units=km 
New line.mt685913 phases=3 bus1=1640286B.1.2.3 bus2=1640300B.1.2.3 linecode=CAB107_3_3_3 length=0.027186 units=km 
New line.mt685920 phases=3 bus1=1640307B.1.2.3 bus2=1640300B.1.2.3 linecode=CAB107_3_3_3 length=0.003604 units=km 
New line.mt685927 phases=3 bus1=1640307B.1.2.3 bus2=1640328B.1.2.3 linecode=CAB107_3_3_3 length=0.027186 units=km 
New line.mt685934 phases=3 bus1=1640328B.1.2.3 bus2=1640342B.1.2.3 linecode=CAB107_3_3_3 length=0.030787 units=km 
New line.mt685941 phases=3 bus1=1640342B.1.2.3 bus2=1640349B.1.2.3 linecode=CAB107_3_3_3 length=0.031381 units=km 
New line.mt685948 phases=3 bus1=1640349B.1.2.3 bus2=1640356B.1.2.3 linecode=CAB107_3_3_3 length=0.028582999999999997 units=km 
New line.mt686410 phases=3 bus1=1641406B.1.2.3 bus2=126336998.1.2.3 linecode=CAB103_3_3_3 length=0.026061 units=km 
New line.mt686417 phases=3 bus1=126336991.1.2.3 bus2=1641406B.1.2.3 linecode=CAB103_3_3_3 length=0.03358 units=km 
New line.mt686424 phases=3 bus1=126337005.1.2.3 bus2=126337012.1.2.3 linecode=CAB103_3_3_3 length=0.015222 units=km 
New line.mt686431 phases=3 bus1=126336949.1.2.3 bus2=126336991.1.2.3 linecode=CAB103_3_3_3 length=0.031381 units=km 
New line.mt686529 phases=3 bus1=126352986.1.2.3 bus2=126352993.1.2.3 linecode=CAB102_3_3_3 length=0.009994 units=km 
New line.mt686599 phases=3 bus1=151243018.1.2.3 bus2=1641686B.1.2.3 linecode=CAB107_3_3_3 length=0.032995 units=km 
New line.mt686606 phases=3 bus1=1641686B.1.2.3 bus2=1641700B.1.2.3 linecode=CAB107_3_3_3 length=0.028582999999999997 units=km 
New line.mt686613 phases=3 bus1=1641700B.1.2.3 bus2=1641707B.1.2.3 linecode=CAB107_3_3_3 length=0.025791 units=km 
New line.mt686620 phases=3 bus1=1641707B.1.2.3 bus2=1647454B.1.2.3 linecode=CAB107_3_3_3 length=0.030787 units=km 
New line.mt686669 phases=3 bus1=126353182.1.2.3 bus2=148421791.1.2.3 linecode=CABA06_3_3_3 length=0.032182 units=km 
New line.mt686676 phases=3 bus1=126353196.1.2.3 bus2=126353203.1.2.3 linecode=CAB102_3_3_3 length=0.017019 units=km 
New line.mt686683 phases=3 bus1=1641875B.1.2.3 bus2=126353182.1.2.3 linecode=CABA06_3_3_3 length=0.032182 units=km 
New line.mt686704 phases=3 bus1=126352965.1.2.3 bus2=1642085B.1.2.3 linecode=CAB102_3_3_3 length=0.012799 units=km 
New line.mt686711 phases=3 bus1=126337306.1.2.3 bus2=1638459B.1.2.3 linecode=CAB107_3_3_3 length=0.030787 units=km 
New line.mt686718 phases=3 bus1=126337439.1.2.3 bus2=126337446.1.2.3 linecode=CAB102_3_3_3 length=0.01859 units=km 
New line.mt686725 phases=3 bus1=1642085B.1.2.3 bus2=126352979.1.2.3 linecode=CAB102_3_3_3 length=0.013593 units=km 
New line.mt686739 phases=3 bus1=1642148B.1.2.3 bus2=163910179.1.2.3 linecode=CAB102_3_3_3 length=0.028 units=km 
New line.mt686746 phases=3 bus1=1642169B.1.2.3 bus2=1642148B.1.2.3 linecode=CAB102_3_3_3 length=0.029981 units=km 
New line.mt686753 phases=3 bus1=163910178.1.2.3 bus2=1642169B.1.2.3 linecode=CAB102_3_3_3 length=0.024398 units=km 
New line.mt686760 phases=3 bus1=163910177.1.2.3 bus2=163910178.1.2.3 linecode=CAB102_3_3_3 length=0.037988999999999995 units=km 
New line.mt686900 phases=3 bus1=133873016.1.2.3 bus2=126352965.1.2.3 linecode=CAB102_3_3_3 length=0.032182 units=km 
New line.mt686907 phases=3 bus1=175936297.1.2.3 bus2=175936296.1.2.3 linecode=CAB107_3_3_3 length=0.022789 units=km 
New line.mt686914 phases=3 bus1=133873009.1.2.3 bus2=133873016.1.2.3 linecode=CAB102_3_3_3 length=0.027186 units=km 
New line.mt686921 phases=3 bus1=175936296.1.2.3 bus2=126352923.1.2.3 linecode=CAB102_3_3_3 length=0.007207 units=km 
New line.mt686928 phases=3 bus1=175936296.1.2.3 bus2=1642526B.1.2.3 linecode=CAB107_3_3_3 length=0.007207 units=km 
New line.mt686935 phases=3 bus1=175936296.1.2.3 bus2=1642533B.1.2.3 linecode=CAB102_3_3_3 length=0.02162 units=km 
New line.mt686942 phases=3 bus1=1642526B.1.2.3 bus2=126352930.1.2.3 linecode=CAB107_3_3_3 length=0.028 units=km 
New line.mt686949 phases=3 bus1=126352930.1.2.3 bus2=175936295.1.2.3 linecode=CABA08_3_3_3 length=0.027186 units=km 
New line.mt686956 phases=3 bus1=126353042.1.2.3 bus2=126353049.1.2.3 linecode=CAB102_3_3_3 length=0.008058 units=km 
New line.mt686963 phases=3 bus1=126352944.1.2.3 bus2=148454386.1.2.3 linecode=CAB107_3_3_3 length=0.021388 units=km 
New line.mt687320 phases=3 bus1=1643415B.1.2.3 bus2=182182677.1.2.3 linecode=CAB102_3_3_3 length=0.028582999999999997 units=km 
New line.mt687327 phases=3 bus1=1643436B.1.2.3 bus2=1643415B.1.2.3 linecode=CAB102_3_3_3 length=0.031603 units=km 
New line.mt687334 phases=3 bus1=1643457B.1.2.3 bus2=1643436B.1.2.3 linecode=CAB102_3_3_3 length=0.029393 units=km 
New line.mt687341 phases=3 bus1=182182673.1.2.3 bus2=1643457B.1.2.3 linecode=CAB102_3_3_3 length=0.030787 units=km 
New line.mt687432 phases=3 bus1=147925474.1.2.3 bus2=1641875B.1.2.3 linecode=CABA06_3_3_3 length=0.032182 units=km 
New line.mt687467 phases=3 bus1=126337040.1.2.3 bus2=126337306.1.2.3 linecode=CAB107_3_3_3 length=0.032182 units=km 
New line.mt687474 phases=3 bus1=126337026.1.2.3 bus2=126337033.1.2.3 linecode=CAB107_3_3_3 length=0.023839 units=km 
New line.mt687481 phases=3 bus1=126337026.1.2.3 bus2=1643786B.1.2.3 linecode=CAB104_3_3_3 length=0.0064 units=km 
New line.mt687488 phases=3 bus1=126337026.1.2.3 bus2=126337047.1.2.3 linecode=CAB107_3_3_3 length=0.0064 units=km 
New line.mt687495 phases=3 bus1=173079259.1.2.3 bus2=1643821B.1.2.3 linecode=CAB107_3_3_3 length=0.036597000000000005 units=km 
New line.mt687502 phases=3 bus1=1643807B.1.2.3 bus2=126337026.1.2.3 linecode=CAB104_3_3_3 length=0.023008 units=km 
New line.mt687509 phases=3 bus1=126337019.1.2.3 bus2=1643807B.1.2.3 linecode=CAB104_3_3_3 length=0.027186 units=km 
New line.mt687516 phases=3 bus1=1643821B.1.2.3 bus2=126337061.1.2.3 linecode=CAB107_3_3_3 length=0.017193999999999997 units=km 
New line.mt687523 phases=3 bus1=1643828B.1.2.3 bus2=182182669.1.2.3 linecode=CAB103_3_3_3 length=0.030787 units=km 
New line.mt687530 phases=3 bus1=182182667.1.2.3 bus2=126336963.1.2.3 linecode=CAB104_3_3_3 length=0.032182 units=km 
New line.mt687537 phases=3 bus1=126337061.1.2.3 bus2=1643863B.1.2.3 linecode=CAB107_3_3_3 length=0.016391 units=km 
New line.mt687544 phases=3 bus1=126337292.1.2.3 bus2=126337299.1.2.3 linecode=CAB103_3_3_3 length=0.008539 units=km 
New line.mt687551 phases=3 bus1=182182668.1.2.3 bus2=1643828B.1.2.3 linecode=CAB103_3_3_3 length=0.023839 units=km 
New line.mt687558 phases=3 bus1=182182668.1.2.3 bus2=182182667.1.2.3 linecode=CAB104_3_3_3 length=0.010624 units=km 
New line.mt687565 phases=3 bus1=182182668.1.2.3 bus2=1643856B.1.2.3 linecode=CAB103_3_3_3 length=0.009214 units=km 
New line.mt687572 phases=3 bus1=1643863B.1.2.3 bus2=1645025B.1.2.3 linecode=CAB107_3_3_3 length=0.035206 units=km 
New line.mt687579 phases=3 bus1=1643870B.1.2.3 bus2=182182668.1.2.3 linecode=CAB104_3_3_3 length=0.01859 units=km 
New line.mt687586 phases=3 bus1=1643877B.1.2.3 bus2=1643870B.1.2.3 linecode=CAB104_3_3_3 length=0.032182 units=km 
New line.mt687628 phases=3 bus1=129217750.1.2.3 bus2=129217757.1.2.3 linecode=CAB103_3_3_3 length=0.029981 units=km 
New line.mt687775 phases=3 bus1=152654006.1.2.3 bus2=1644472B.1.2.3 linecode=CAB102_3_3_3 length=0.024398 units=km 
New line.mt687782 phases=3 bus1=1644472B.1.2.3 bus2=152654005.1.2.3 linecode=CAB102_3_3_3 length=0.026384 units=km 
New line.mt687789 phases=3 bus1=152654005.1.2.3 bus2=1644507B.1.2.3 linecode=CAB102_3_3_3 length=0.028582999999999997 units=km 
New line.mt687796 phases=3 bus1=1644507B.1.2.3 bus2=1644521B.1.2.3 linecode=CAB102_3_3_3 length=0.01081 units=km 
New line.mt687803 phases=3 bus1=1644521B.1.2.3 bus2=1644535B.1.2.3 linecode=CAB102_3_3_3 length=0.029393 units=km 
New line.mt687810 phases=3 bus1=152654004.1.2.3 bus2=1644535B.1.2.3 linecode=CAB102_3_3_3 length=0.030787 units=km 
New line.mt687978 phases=3 bus1=126337180.1.2.3 bus2=126337187.1.2.3 linecode=CAB102_3_3_3 length=0.009428 units=km 
New line.mt687985 phases=3 bus1=1644969B.1.2.3 bus2=126337173.1.2.3 linecode=CAB102_3_3_3 length=0.027442 units=km 
New line.mt687992 phases=3 bus1=1644976B.1.2.3 bus2=1644969B.1.2.3 linecode=CAB102_3_3_3 length=0.031045000000000003 units=km 
New line.mt687999 phases=3 bus1=1644990B.1.2.3 bus2=1644976B.1.2.3 linecode=CAB102_3_3_3 length=0.028284 units=km 
New line.mt688006 phases=3 bus1=1644997B.1.2.3 bus2=1644990B.1.2.3 linecode=CAB102_3_3_3 length=0.008058 units=km 
New line.mt688013 phases=3 bus1=166081875.1.2.3 bus2=1644997B.1.2.3 linecode=CAB102_3_3_3 length=0.024985 units=km 
New line.mt688020 phases=3 bus1=166081874.1.2.3 bus2=166081875.1.2.3 linecode=CAB102_3_3_3 length=0.024985 units=km 
New line.mt688027 phases=3 bus1=1645025B.1.2.3 bus2=173079257.1.2.3 linecode=CAB107_3_3_3 length=0.003604 units=km 
New line.mt688034 phases=3 bus1=173079257.1.2.3 bus2=126337075.1.2.3 linecode=CAB102_3_3_3 length=0.007207 units=km 
New line.mt688041 phases=3 bus1=173079257.1.2.3 bus2=1645039B.1.2.3 linecode=CAB102_3_3_3 length=0.024985 units=km 
New line.mt688048 phases=3 bus1=173079257.1.2.3 bus2=1645053B.1.2.3 linecode=CAB107_3_3_3 length=0.027786 units=km 
New line.mt688055 phases=3 bus1=1645039B.1.2.3 bus2=1645060B.1.2.3 linecode=CAB102_3_3_3 length=0.028 units=km 
New line.mt688062 phases=3 bus1=1645053B.1.2.3 bus2=173079256.1.2.3 linecode=CAB107_3_3_3 length=0.030213999999999998 units=km 
New line.mt688069 phases=3 bus1=1645060B.1.2.3 bus2=1648245B.1.2.3 linecode=CAB102_3_3_3 length=0.030591 units=km 
New line.mt688076 phases=3 bus1=173079255.1.2.3 bus2=174572523.1.2.3 linecode=CAB107_3_3_3 length=0.030787 units=km 
New line.mt688083 phases=3 bus1=148421790.1.2.3 bus2=147925474.1.2.3 linecode=CABA06_3_3_3 length=0.032182 units=km 
New line.mt688090 phases=3 bus1=148454386.1.2.3 bus2=147925348.1.2.3 linecode=CABA06_3_3_3 length=0.004997 units=km 
New line.mt688097 phases=3 bus1=148454386.1.2.3 bus2=1645102B.1.2.3 linecode=CABA08_3_3_3 length=0.005828000000000001 units=km 
New line.mt688104 phases=3 bus1=148454386.1.2.3 bus2=1645109B.1.2.3 linecode=CABA06_3_3_3 length=0.023416 units=km 
New line.mt688111 phases=3 bus1=1645102B.1.2.3 bus2=148454384.1.2.3 linecode=CABA08_3_3_3 length=0.030787 units=km 
New line.mt688118 phases=3 bus1=148454384.1.2.3 bus2=1645137B.1.2.3 linecode=CABA08_3_3_3 length=0.032182 units=km 
New line.mt688125 phases=3 bus1=1645137B.1.2.3 bus2=148454383.1.2.3 linecode=CABA08_3_3_3 length=0.004997 units=km 
New line.mt688139 phases=3 bus1=148454383.1.2.3 bus2=1645130B.1.2.3 linecode=CABA06_3_3_3 length=0.004997 units=km 
New line.mt688146 phases=3 bus1=148454383.1.2.3 bus2=148454382.1.2.3 linecode=CABA08_3_3_3 length=0.020796 units=km 
New line.mt688153 phases=3 bus1=148454383.1.2.3 bus2=1645172B.1.2.3 linecode=CABA06_3_3_3 length=0.030787 units=km 
New line.mt688160 phases=3 bus1=148454382.1.2.3 bus2=1645179B.1.2.3 linecode=CAB107_3_3_3 length=0.025791 units=km 
New line.mt688167 phases=3 bus1=1645172B.1.2.3 bus2=148454385.1.2.3 linecode=CABA06_3_3_3 length=0.032182 units=km 
New line.mt688174 phases=3 bus1=1645179B.1.2.3 bus2=148454380.1.2.3 linecode=CAB107_3_3_3 length=0.032182 units=km 
New line.mt688181 phases=3 bus1=1645242B.1.2.3 bus2=139428230.1.2.3 linecode=CAB102_3_3_3 length=0.037179000000000004 units=km 
New line.mt688188 phases=3 bus1=139428223.1.2.3 bus2=1645242B.1.2.3 linecode=CAB102_3_3_3 length=0.038576 units=km 
New line.mt688195 phases=3 bus1=148454380.1.2.3 bus2=126353112.1.2.3 linecode=CAB102_3_3_3 length=0.007067 units=km 
New line.mt688202 phases=3 bus1=148454380.1.2.3 bus2=148454379.1.2.3 linecode=CAB107_3_3_3 length=0.038576 units=km 
New line.mt688209 phases=3 bus1=148454379.1.2.3 bus2=1645270B.1.2.3 linecode=CAB107_3_3_3 length=0.029393 units=km 
New line.mt688216 phases=3 bus1=148454379.1.2.3 bus2=1811877B.1.2.3 linecode=CAB103_3_3_3 length=0.008058 units=km 
New line.mt688223 phases=3 bus1=1645270B.1.2.3 bus2=1646698B.1.2.3 linecode=CAB107_3_3_3 length=0.024985 units=km 
New line.mt688286 phases=3 bus1=1645382B.1.2.3 bus2=1640356B.1.2.3 linecode=CAB107_3_3_3 length=0.00424 units=km 
New line.mt688293 phases=3 bus1=1645382B.1.2.3 bus2=1645396B.1.2.3 linecode=CAB107_3_3_3 length=0.023586 units=km 
New line.mt688300 phases=3 bus1=126337523.1.2.3 bus2=1645396B.1.2.3 linecode=CAB107_3_3_3 length=0.028 units=km 
New line.mt688307 phases=3 bus1=126337523.1.2.3 bus2=1645424B.1.2.3 linecode=CAB107_3_3_3 length=0.029393 units=km 
New line.mt688314 phases=3 bus1=1645424B.1.2.3 bus2=1645431B.1.2.3 linecode=CAB107_3_3_3 length=0.027186 units=km 
New line.mt688321 phases=3 bus1=1645445B.1.2.3 bus2=1645431B.1.2.3 linecode=CAB107_3_3_3 length=0.023839 units=km 
New line.mt688328 phases=3 bus1=1645445B.1.2.3 bus2=1645452B.1.2.3 linecode=CAB107_3_3_3 length=0.004997 units=km 
New line.mt688335 phases=3 bus1=1645452B.1.2.3 bus2=1652473B.1.2.3 linecode=CAB107_3_3_3 length=0.032182 units=km 
New line.mt688804 phases=3 bus1=1646124B.1.2.3 bus2=163910169.1.2.3 linecode=CAB103_3_3_3 length=0.030787 units=km 
New line.mt688811 phases=3 bus1=1646131B.1.2.3 bus2=1643877B.1.2.3 linecode=CAB104_3_3_3 length=0.029981 units=km 
New line.mt688818 phases=3 bus1=182182670.1.2.3 bus2=1646124B.1.2.3 linecode=CAB103_3_3_3 length=0.021388 units=km 
New line.mt688825 phases=3 bus1=182182670.1.2.3 bus2=1646131B.1.2.3 linecode=CAB104_3_3_3 length=0.01859 units=km 
New line.mt688832 phases=3 bus1=182182670.1.2.3 bus2=1646152B.1.2.3 linecode=CAB103_3_3_3 length=0.011394999999999999 units=km 
New line.mt688839 phases=3 bus1=1646145B.1.2.3 bus2=182182670.1.2.3 linecode=CAB104_3_3_3 length=0.008596999999999999 units=km 
New line.mt688846 phases=3 bus1=182182671.1.2.3 bus2=1646145B.1.2.3 linecode=CAB104_3_3_3 length=0.03358 units=km 
New line.mt688853 phases=3 bus1=1646166B.1.2.3 bus2=182182673.1.2.3 linecode=CAB103_3_3_3 length=0.032182 units=km 
New line.mt688860 phases=3 bus1=1646180B.1.2.3 bus2=182182671.1.2.3 linecode=CAB104_3_3_3 length=0.032995 units=km 
New line.mt688867 phases=3 bus1=182182672.1.2.3 bus2=1646166B.1.2.3 linecode=CAB103_3_3_3 length=0.020796 units=km 
New line.mt688874 phases=3 bus1=182182672.1.2.3 bus2=1646180B.1.2.3 linecode=CAB104_3_3_3 length=0.009214 units=km 
New line.mt688881 phases=3 bus1=182182672.1.2.3 bus2=1646194B.1.2.3 linecode=CAB103_3_3_3 length=0.009994 units=km 
New line.mt688888 phases=3 bus1=1646194B.1.2.3 bus2=126336914.1.2.3 linecode=CAB103_3_3_3 length=0.032182 units=km 
New line.mt688895 phases=3 bus1=1646208B.1.2.3 bus2=182182672.1.2.3 linecode=CAB104_3_3_3 length=0.021388 units=km 
New line.mt688902 phases=3 bus1=1646215B.1.2.3 bus2=1646208B.1.2.3 linecode=CAB104_3_3_3 length=0.028582999999999997 units=km 
New line.mt688909 phases=3 bus1=168714587.1.2.3 bus2=1646229B.1.2.3 linecode=CAB102_3_3_3 length=0.034387999999999995 units=km 
New line.mt688916 phases=3 bus1=1646229B.1.2.3 bus2=1649575B.1.2.3 linecode=CAB102_3_3_3 length=0.03358 units=km 
New line.mt689210 phases=3 bus1=1646656B.1.2.3 bus2=129217750.1.2.3 linecode=CAB102_3_3_3 length=0.022789 units=km 
New line.mt689217 phases=3 bus1=1646656B.1.2.3 bus2=1646649B.1.2.3 linecode=CAB102_3_3_3 length=0.00424 units=km 
New line.mt689224 phases=3 bus1=1646656B.1.2.3 bus2=1646663B.1.2.3 linecode=CAB102_3_3_3 length=0.004997 units=km 
New line.mt689231 phases=3 bus1=1646670B.1.2.3 bus2=1646656B.1.2.3 linecode=CAB102_3_3_3 length=0.030787 units=km 
New line.mt689238 phases=3 bus1=1646677B.1.2.3 bus2=1646670B.1.2.3 linecode=CAB102_3_3_3 length=0.034387999999999995 units=km 
New line.mt689245 phases=3 bus1=129217743.1.2.3 bus2=1646677B.1.2.3 linecode=CAB102_3_3_3 length=0.040779 units=km 
New line.mt689259 phases=3 bus1=126353273.1.2.3 bus2=126353280.1.2.3 linecode=CAB102_3_3_3 length=0.024192 units=km 
New line.mt689266 phases=3 bus1=1646698B.1.2.3 bus2=148454378.1.2.3 linecode=CAB107_3_3_3 length=0.02219 units=km 
New line.mt689273 phases=3 bus1=129217729.1.2.3 bus2=126353245.1.2.3 linecode=CAB102_3_3_3 length=0.03358 units=km 
New line.mt689280 phases=3 bus1=148454378.1.2.3 bus2=126353140.1.2.3 linecode=CAB102_3_3_3 length=0.012199 units=km 
New line.mt689287 phases=3 bus1=148454378.1.2.3 bus2=1646719B.1.2.3 linecode=CAB107_3_3_3 length=0.01081 units=km 
New line.mt689294 phases=3 bus1=148454378.1.2.3 bus2=126353161.1.2.3 linecode=CAB102_3_3_3 length=0.025791 units=km 
New line.mt689301 phases=3 bus1=1646719B.1.2.3 bus2=1646733B.1.2.3 linecode=CAB107_3_3_3 length=0.030787 units=km 
New line.mt689308 phases=3 bus1=132232699.1.2.3 bus2=132232706.1.2.3 linecode=CAB102_3_3_3 length=0.030213999999999998 units=km 
New line.mt689315 phases=3 bus1=1646733B.1.2.3 bus2=148454377.1.2.3 linecode=CAB107_3_3_3 length=0.025791 units=km 
New line.mt689441 phases=3 bus1=174572523.1.2.3 bus2=174572521.1.2.3 linecode=CABA08_3_3_3 length=0.030213999999999998 units=km 
New line.mt689448 phases=3 bus1=174572521.1.2.3 bus2=174572519.1.2.3 linecode=CAB107_3_3_3 length=0.005654 units=km 
New line.mt689455 phases=3 bus1=174572519.1.2.3 bus2=1647132B.1.2.3 linecode=CABA08_3_3_3 length=0.005828000000000001 units=km 
New line.mt689462 phases=3 bus1=174572519.1.2.3 bus2=126337103.1.2.3 linecode=CAB102_3_3_3 length=0.025791 units=km 
New line.mt689469 phases=3 bus1=174572519.1.2.3 bus2=174572518.1.2.3 linecode=CABA08_3_3_3 length=0.026061 units=km 
New line.mt689476 phases=3 bus1=150345606.1.2.3 bus2=150345607.1.2.3 linecode=CAB401_3_3_3 length=0.016989999999999998 units=km 
New line.mt689483 phases=3 bus1=174572518.1.2.3 bus2=174572517.1.2.3 linecode=CABA08_3_3_3 length=0.037179000000000004 units=km 
New line.mt689490 phases=3 bus1=174572518.1.2.3 bus2=174572520.1.2.3 linecode=CAB401_3_3_3 length=0.014134 units=km 
New line.mt689497 phases=3 bus1=174572517.1.2.3 bus2=126337117.1.2.3 linecode=CAB107_3_3_3 length=0.028826 units=km 
New line.mt689623 phases=3 bus1=1647454B.1.2.3 bus2=1647461B.1.2.3 linecode=CAB107_3_3_3 length=0.023586 units=km 
New line.mt689630 phases=3 bus1=1647461B.1.2.3 bus2=151243017.1.2.3 linecode=CAB107_3_3_3 length=0.005828000000000001 units=km 
New line.mt689637 phases=3 bus1=151243017.1.2.3 bus2=1646754B.1.2.3 linecode=CAB103_3_3_3 length=0.004997 units=km 
New line.mt689644 phases=3 bus1=151243017.1.2.3 bus2=1647475B.1.2.3 linecode=CAB107_3_3_3 length=0.027786 units=km 
New line.mt689651 phases=3 bus1=151243017.1.2.3 bus2=1647825B.1.2.3 linecode=CAB103_3_3_3 length=0.03358 units=km 
New line.mt689658 phases=3 bus1=1647475B.1.2.3 bus2=151243016.1.2.3 linecode=CAB107_3_3_3 length=0.029393 units=km 
New line.mt689665 phases=3 bus1=151243016.1.2.3 bus2=1647489B.1.2.3 linecode=CAB107_3_3_3 length=0.031603 units=km 
New line.mt689672 phases=3 bus1=1647489B.1.2.3 bus2=151243015.1.2.3 linecode=CAB107_3_3_3 length=0.029393 units=km 
New line.mt689679 phases=3 bus1=151243015.1.2.3 bus2=1647503B.1.2.3 linecode=CAB107_3_3_3 length=0.034387999999999995 units=km 
New line.mt689686 phases=3 bus1=1647503B.1.2.3 bus2=126353406.1.2.3 linecode=CAB107_3_3_3 length=0.029393 units=km 
...
