ULAE714/ssdBT_ULAE714.dss
New line.bt1845876 phases=4 bus1=2125666.1.2.3.4 bus2=2125659.1.2.3.4 length=0.027186 units=km linecode=BT803_BT803_4_3_4_4
New line.bt1845883 phases=4 bus1=2125673.1.2.3.4 bus2=2125652.1.2.3.4 length=0.025791 units=km linecode=BT108_BT107_7_3_1_4
New line.bt1845890 phases=4 bus1=2125673.1.2.3.4 bus2=2125666.1.2.3.4 length=0.005828000000000001 units=km linecode=BT803_BT803_4_3_4_4
New line.bt1845897 phases=4 bus1=2125673.1.2.3.4 bus2=2125680.1.2.3.4 length=0.012199 units=km linecode=BT108_BT107_7_3_1_4
New line.bt1845904 phases=4 bus1=2125680.1.2.3.4 bus2=2125708.1.2.3.4 length=0.032782 units=km linecode=BT108_BT107_7_3_1_4
New line.bt1845911 phases=4 bus1=2125687.1.2.3.4 bus2=2125673.1.2.3.4 length=0.026384 units=km linecode=BT803_BT803_4_3_4_4
New line.bt1845918 phases=4 bus1=2125701.1.2.3.4 bus2=2125687.1.2.3.4 length=0.031381 units=km linecode=BT803_BT803_4_3_4_4
New line.bt1845925 phases=4 bus1=2125645.1.2.3.4 bus2=2125701.1.2.3.4 length=0.0005 units=km linecode=BT309_BT309_7_3_1_4
New line.bt1845932 phases=4 bus1=2125701.1.2.3.4 bus2=2125715.1.2.3.4 length=0.028582999999999997 units=km linecode=BT803_BT803_4_3_4_4
New line.bt1845939 phases=4 bus1=2318971.1.2.3.4 bus2=2318978.1.2.3.4 length=0.0005 units=km linecode=BT513_BT513_7_3_1_4
New line.bt1845946 phases=4 bus1=2125708.1.2.3.4 bus2=2125729.1.2.3.4 length=0.030591 units=km linecode=BT108_BT107_7_3_1_4
New line.bt1845953 phases=4 bus1=2125715.1.2.3.4 bus2=2125722.1.2.3.4 length=0.0064 units=km linecode=BT803_BT803_4_3_4_4
New line.bt1845960 phases=4 bus1=2125722.1.2.3.4 bus2=2125694.1.2.3.4 length=0.030787 units=km linecode=BT107_BT106_7_3_1_4
New line.bt1845967 phases=4 bus1=2125722.1.2.3.4 bus2=2125736.1.2.3.4 length=0.004997 units=km linecode=BT107_BT106_7_3_1_4
New line.bt1845974 phases=4 bus1=2125722.1.2.3.4 bus2=2125743.1.2.3.4 length=0.02219 units=km linecode=BT803_BT803_4_3_4_4
New line.bt1845981 phases=4 bus1=2125736.1.2.3.4 bus2=2125750.1.2.3.4 length=0.03358 units=km linecode=BT107_BT106_7_3_1_4
New line.bt1845988 phases=4 bus1=2125743.1.2.3.4 bus2=2125757.1.2.3.4 length=0.029981 units=km linecode=BT803_BT803_4_3_4_4
New line.bt1845995 phases=4 bus1=2125750.1.2.3.4 bus2=2125764.1.2.3.4 length=0.034387999999999995 units=km linecode=BT107_BT106_7_3_1_4
New line.bt1848312 phases=4 bus1=2128067.1.2.3.4 bus2=2128053.1.2.3.4 length=0.034978 units=km linecode=BT108_BT108_7_3_1_4
New line.bt1848319 phases=4 bus1=2128081.1.2.3.4 bus2=2128067.1.2.3.4 length=0.03358 units=km linecode=BT108_BT108_7_3_1_4
New line.bt1848326 phases=4 bus1=2128088.1.2.3.4 bus2=2128060.1.2.3.4 length=0.03358 units=km linecode=BT108_BT107_7_3_1_4
New line.bt1848333 phases=4 bus1=2128095.1.2.3.4 bus2=2128081.1.2.3.4 length=0.012799 units=km linecode=BT108_BT108_7_3_1_4
New line.bt1848340 phases=4 bus1=2128095.1.2.3.4 bus2=2128088.1.2.3.4 length=0.0064 units=km linecode=BT108_BT107_7_3_1_4
New line.bt1848347 phases=4 bus1=2128095.1.2.3.4 bus2=2128116.1.2.3.4 length=0.024398 units=km linecode=BT108_BT107_7_3_1_4
New line.bt1848354 phases=4 bus1=2128109.1.2.3.4 bus2=2128095.1.2.3.4 length=0.029188 units=km linecode=BT108_BT108_7_3_1_4
New line.bt1848361 phases=4 bus1=2128116.1.2.3.4 bus2=2128137.1.2.3.4 length=0.030787 units=km linecode=BT108_BT107_7_3_1_4
New line.bt1848368 phases=3 bus1=2128116.3.1.4 bus2=3233290.3.1.4 length=0.003604 units=km linecode=BT503_BT519_5_2_1_3
New line.bt1848375 phases=4 bus1=2128130.1.2.3.4 bus2=2128109.1.2.3.4 length=0.028001 units=km linecode=BT108_BT108_7_3_1_4
New line.bt1848382 phases=4 bus1=2128046.1.2.3.4 bus2=2128130.1.2.3.4 length=0.0005 units=km linecode=BT508_BT508_7_3_1_4
New line.bt1848389 phases=4 bus1=2128130.1.2.3.4 bus2=2128151.1.2.3.4 length=0.032182 units=km linecode=BT108_BT108_7_3_1_4
New line.bt1848396 phases=4 bus1=2128137.1.2.3.4 bus2=2128172.1.2.3.4 length=0.031603 units=km linecode=BT108_BT107_7_3_1_4
New line.bt1848403 phases=4 bus1=2128144.1.2.3.4 bus2=2128123.1.2.3.4 length=0.03358 units=km linecode=BT107_BT106_7_3_1_4
New line.bt1848410 phases=4 bus1=2128151.1.2.3.4 bus2=2128158.1.2.3.4 length=0.004997 units=km linecode=BT108_BT108_7_3_1_4
New line.bt1848417 phases=4 bus1=2128158.1.2.3.4 bus2=2128144.1.2.3.4 length=0.0078060000000000004 units=km linecode=BT107_BT106_7_3_1_4
New line.bt1848424 phases=4 bus1=2128158.1.2.3.4 bus2=2128165.1.2.3.4 length=0.02162 units=km linecode=BT108_BT108_7_3_1_4
New line.bt1848431 phases=4 bus1=2128158.1.2.3.4 bus2=2128179.1.2.3.4 length=0.022789 units=km linecode=BT107_BT106_7_3_1_4
New line.bt1848438 phases=4 bus1=2128165.1.2.3.4 bus2=2128186.1.2.3.4 length=0.029981 units=km linecode=BT108_BT108_7_3_1_4
New line.bt1848445 phases=3 bus1=2130916.1.2.4 bus2=3233269.1.2.4 length=0.003161 units=km linecode=BT503_BT519_5_2_1_3
New line.bt1848452 phases=4 bus1=2128179.1.2.3.4 bus2=2128193.1.2.3.4 length=0.028001 units=km linecode=BT107_BT106_7_3_1_4
New line.bt1850937 phases=4 bus1=2130804.1.2.3.4 bus2=4053424.1.2.3.4 length=0.00424 units=km linecode=BT521_BT315_5_3_1_4
New line.bt1850944 phases=4 bus1=2130811.1.2.3.4 bus2=2130804.1.2.3.4 length=0.036597000000000005 units=km linecode=BT803_BT803_4_3_4_4
New line.bt1850951 phases=4 bus1=2130818.1.2.3.4 bus2=2130811.1.2.3.4 length=0.029393 units=km linecode=BT803_BT803_4_3_4_4
New line.bt1850958 phases=4 bus1=2130832.1.2.3.4 bus2=2130818.1.2.3.4 length=0.030213999999999998 units=km linecode=BT803_BT803_4_3_4_4
New line.bt1850965 phases=4 bus1=2130797.1.2.3.4 bus2=2130832.1.2.3.4 length=0.0005 units=km linecode=BT509_BT509_7_3_1_4
New line.bt1850972 phases=4 bus1=2130832.1.2.3.4 bus2=2130839.1.2.3.4 length=0.028 units=km linecode=BT803_BT803_4_3_4_4
New line.bt1850979 phases=4 bus1=2130832.1.2.3.4 bus2=3233234.1.2.3.4 length=0.003604 units=km linecode=BT505_BT503_5_3_1_4
New line.bt1850986 phases=4 bus1=2130839.1.2.3.4 bus2=2130846.1.2.3.4 length=0.006078999999999999 units=km linecode=BT803_BT803_4_3_4_4
New line.bt1850993 phases=4 bus1=2130839.1.2.3.4 bus2=2130867.1.2.3.4 length=0.025223 units=km linecode=BT803_BT803_4_3_4_4
New line.bt1851000 phases=4 bus1=2130846.1.2.3.4 bus2=2130860.1.2.3.4 length=0.032995 units=km linecode=BT803_BT803_4_3_4_4
New line.bt1851007 phases=4 bus1=2130923.1.2.3.4 bus2=2130909.1.2.3.4 length=0.03358 units=km linecode=BT810_BT810_4_3_4_4
New line.bt1851014 phases=4 bus1=2130930.1.2.3.4 bus2=2130916.1.2.3.4 length=0.028001 units=km linecode=BT803_BT803_4_3_4_4
New line.bt1851021 phases=4 bus1=2130937.1.2.3.4 bus2=2130923.1.2.3.4 length=0.027186 units=km linecode=BT810_BT810_4_3_4_4
New line.bt1851028 phases=4 bus1=2130944.1.2.3.4 bus2=2130930.1.2.3.4 length=0.012199 units=km linecode=BT803_BT803_4_3_4_4
New line.bt1851035 phases=4 bus1=2130944.1.2.3.4 bus2=2130937.1.2.3.4 length=0.005382 units=km linecode=BT810_BT810_4_3_4_4
New line.bt1851042 phases=4 bus1=2130944.1.2.3.4 bus2=2130951.1.2.3.4 length=0.030444 units=km linecode=BT810_BT810_4_3_4_4
New line.bt1851049 phases=4 bus1=2130951.1.2.3.4 bus2=2130965.1.2.3.4 length=0.028582999999999997 units=km linecode=BT810_BT810_4_3_4_4
New line.bt1851056 phases=4 bus1=2130958.1.2.3.4 bus2=2130944.1.2.3.4 length=0.016391 units=km linecode=BT803_BT803_4_3_4_4
New line.bt1851063 phases=4 bus1=2130972.1.2.3.4 bus2=2130958.1.2.3.4 length=0.029393 units=km linecode=BT803_BT803_4_3_4_4
New line.bt1851070 phases=4 bus1=2130888.1.2.3.4 bus2=2130972.1.2.3.4 length=0.0005 units=km linecode=BT309_BT309_7_3_1_4
New line.bt1851077 phases=4 bus1=2130972.1.2.3.4 bus2=2130979.1.2.3.4 length=0.028582999999999997 units=km linecode=BT803_BT803_4_3_4_4
New line.bt1851084 phases=4 bus1=2130979.1.2.3.4 bus2=2130993.1.2.3.4 length=0.028 units=km linecode=BT108_BT107_7_3_1_4
New line.bt1851091 phases=4 bus1=2130993.1.2.3.4 bus2=2131007.1.2.3.4 length=0.023008 units=km linecode=BT108_BT107_7_3_1_4
New line.bt1851098 phases=4 bus1=2131000.1.2.3.4 bus2=2130986.1.2.3.4 length=0.030787 units=km linecode=BT107_BT106_7_3_1_4
New line.bt1851105 phases=4 bus1=2131007.1.2.3.4 bus2=2131000.1.2.3.4 length=0.0064 units=km linecode=BT107_BT106_7_3_1_4
New line.bt1851112 phases=4 bus1=2131007.1.2.3.4 bus2=2131014.1.2.3.4 length=0.0064 units=km linecode=BT108_BT107_7_3_1_4
New line.bt1851119 phases=4 bus1=2131007.1.2.3.4 bus2=2131021.1.2.3.4 length=0.027186 units=km linecode=BT107_BT106_7_3_1_4
New line.bt1851126 phases=4 bus1=2131014.1.2.3.4 bus2=2131028.1.2.3.4 length=0.031381 units=km linecode=BT108_BT107_7_3_1_4
New line.bt1851133 phases=4 bus1=2131021.1.2.3.4 bus2=2131035.1.2.3.4 length=0.031603 units=km linecode=BT107_BT106_7_3_1_4
New line.bt1853142 phases=4 bus1=2133107.1.2.3.4 bus2=2133093.1.2.3.4 length=0.029393 units=km linecode=BT107_BT106_7_3_1_4
New line.bt1853149 phases=4 bus1=2133114.1.2.3.4 bus2=2133100.1.2.3.4 length=0.029393 units=km linecode=BT108_BT107_7_3_1_4
New line.bt1853156 phases=4 bus1=2133114.1.2.3.4 bus2=2133107.1.2.3.4 length=0.028582999999999997 units=km linecode=BT107_BT106_7_3_1_4
New line.bt1853163 phases=4 bus1=2133114.1.2.3.4 bus2=2133121.1.2.3.4 length=0.0064 units=km linecode=BT107_BT106_7_3_1_4
New line.bt1853170 phases=4 bus1=2133121.1.2.3.4 bus2=2133135.1.2.3.4 length=0.02219 units=km linecode=BT107_BT106_7_3_1_4
New line.bt1853177 phases=4 bus1=2133128.1.2.3.4 bus2=2133114.1.2.3.4 length=0.004997 units=km linecode=BT108_BT107_7_3_1_4
New line.bt1853184 phases=4 bus1=2133135.1.2.3.4 bus2=2133149.1.2.3.4 length=0.028582999999999997 units=km linecode=BT107_BT106_7_3_1_4
New line.bt1853191 phases=4 bus1=2133142.1.2.3.4 bus2=2133128.1.2.3.4 length=0.024398 units=km linecode=BT108_BT107_7_3_1_4
New line.bt1853198 phases=4 bus1=2133086.1.2.3.4 bus2=2133142.1.2.3.4 length=0.0005 units=km linecode=BT309_BT309_7_3_1_4
New line.bt1853205 phases=4 bus1=2133142.1.2.3.4 bus2=2133156.1.2.3.4 length=0.027186 units=km linecode=BT108_BT107_7_3_1_4
New line.bt1853212 phases=4 bus1=2133156.1.2.3.4 bus2=2133170.1.2.3.4 length=0.026384 units=km linecode=BT108_BT107_7_3_1_4
New line.bt1853219 phases=4 bus1=2133170.1.2.3.4 bus2=2133184.1.2.3.4 length=0.027186 units=km linecode=BT108_BT107_7_3_1_4
New line.bt1853226 phases=4 bus1=2133177.1.2.3.4 bus2=2133163.1.2.3.4 length=0.030787 units=km linecode=BT107_BT107_7_3_1_4
New line.bt1853233 phases=4 bus1=2133184.1.2.3.4 bus2=2133191.1.2.3.4 length=0.003604 units=km linecode=BT108_BT107_7_3_1_4
New line.bt1853240 phases=4 bus1=2133191.1.2.3.4 bus2=2133177.1.2.3.4 length=0.024398 units=km linecode=BT107_BT107_7_3_1_4
New line.bt1853247 phases=4 bus1=2133191.1.2.3.4 bus2=2133198.1.2.3.4 length=0.004997 units=km linecode=BT107_BT107_7_3_1_4
New line.bt1853254 phases=4 bus1=2133191.1.2.3.4 bus2=2133212.1.2.3.4 length=0.027186 units=km linecode=BT108_BT107_7_3_1_4
New line.bt1853261 phases=4 bus1=2133198.1.2.3.4 bus2=2133205.1.2.3.4 length=0.021388 units=km linecode=BT107_BT107_7_3_1_4
New line.bt1853268 phases=4 bus1=2133205.1.2.3.4 bus2=2133219.1.2.3.4 length=0.027186 units=km linecode=BT107_BT107_7_3_1_4
New line.bt1853275 phases=4 bus1=2133212.1.2.3.4 bus2=2133226.1.2.3.4 length=0.030787 units=km linecode=BT108_BT107_7_3_1_4
New line.bt1853282 phases=4 bus1=2133226.1.2.3.4 bus2=2133233.1.2.3.4 length=0.031381 units=km linecode=BT108_BT107_7_3_1_4
New line.bt1853289 phases=4 bus1=2133233.1.2.3.4 bus2=2133240.1.2.3.4 length=0.028582999999999997 units=km linecode=BT108_BT107_7_3_1_4
New line.bt1854395 phases=4 bus1=2134332.1.2.3.4 bus2=2134325.1.2.3.4 length=0.031381 units=km linecode=BT107_BT106_7_3_1_4
New line.bt1854402 phases=4 bus1=2134346.1.2.3.4 bus2=2134332.1.2.3.4 length=0.031603 units=km linecode=BT107_BT106_7_3_1_4
New line.bt1854409 phases=4 bus1=2134353.1.2.3.4 bus2=2134339.1.2.3.4 length=0.028582999999999997 units=km linecode=BT810_BT810_4_3_4_4
New line.bt1854416 phases=4 bus1=2134360.1.2.3.4 bus2=2134346.1.2.3.4 length=0.0064 units=km linecode=BT111_BT108_7_3_1_4
New line.bt1854423 phases=4 bus1=2134360.1.2.3.4 bus2=2134353.1.2.3.4 length=0.004997 units=km linecode=BT810_BT810_4_3_4_4
New line.bt1854430 phases=4 bus1=2134360.1.2.3.4 bus2=2134367.1.2.3.4 length=0.027001999999999998 units=km linecode=BT810_BT810_4_3_4_4
New line.bt1854437 phases=4 bus1=2134367.1.2.3.4 bus2=2134381.1.2.3.4 length=0.028582999999999997 units=km linecode=BT810_BT810_4_3_4_4
New line.bt1854444 phases=4 bus1=2134374.1.2.3.4 bus2=2134360.1.2.3.4 length=0.028 units=km linecode=BT108_BT108_7_3_1_4
New line.bt1854451 phases=4 bus1=2134388.1.2.3.4 bus2=2134374.1.2.3.4 length=0.027186 units=km linecode=BT111_BT108_7_3_1_4
New line.bt1854458 phases=4 bus1=2134395.1.2.3.4 bus2=2134388.1.2.3.4 length=0.027186 units=km linecode=BT111_BT108_7_3_1_4
New line.bt1854465 phases=4 bus1=2134409.1.2.3.4 bus2=2134395.1.2.3.4 length=0.028582999999999997 units=km linecode=BT111_BT108_7_3_1_4
New line.bt1854472 phases=4 bus1=2134318.1.2.3.4 bus2=2134409.1.2.3.4 length=0.0005 units=km linecode=BT514_BT514_7_3_1_4
New line.bt1854479 phases=4 bus1=2134409.1.2.3.4 bus2=2134423.1.2.3.4 length=0.019711 units=km linecode=BT108_BT108_7_3_1_4
New line.bt1854486 phases=4 bus1=2134416.1.2.3.4 bus2=2134402.1.2.3.4 length=0.028582999999999997 units=km linecode=BT107_BT106_7_3_1_4
New line.bt1854493 phases=4 bus1=2134423.1.2.3.4 bus2=2134416.1.2.3.4 length=0.005828000000000001 units=km linecode=BT107_BT106_7_3_1_4
New line.bt1854500 phases=4 bus1=2134423.1.2.3.4 bus2=2134430.1.2.3.4 length=0.0064 units=km linecode=BT111_BT108_7_3_1_4
New line.bt1854507 phases=4 bus1=2134423.1.2.3.4 bus2=2134437.1.2.3.4 length=0.024192 units=km linecode=BT107_BT106_7_3_1_4
New line.bt1854514 phases=4 bus1=2134430.1.2.3.4 bus2=2134451.1.2.3.4 length=0.03358 units=km linecode=BT111_BT108_7_3_1_4
New line.bt1854521 phases=4 bus1=2134437.1.2.3.4 bus2=2134444.1.2.3.4 length=0.027186 units=km linecode=BT107_BT106_7_3_1_4
New line.bt1854528 phases=4 bus1=2134451.1.2.3.4 bus2=2134458.1.2.3.4 length=0.031381 units=km linecode=BT111_BT108_7_3_1_4
New line.bt1854689 phases=4 bus1=2134619.1.2.3.4 bus2=2134626.1.2.3.4 length=0.0005 units=km linecode=BT312_BT312_7_3_1_4
New line.bt1854976 phases=4 bus1=2134948.1.2.3.4 bus2=2134941.1.2.3.4 length=0.027186 units=km linecode=BT108_BT107_7_3_1_4
New line.bt1854983 phases=4 bus1=2134955.1.2.3.4 bus2=2135011.1.2.3.4 length=0.009428 units=km linecode=BT108_BT107_7_3_1_4
New line.bt1854990 phases=4 bus1=2134962.1.2.3.4 bus2=2134955.1.2.3.4 length=0.032182 units=km linecode=BT803_BT803_4_3_4_4
New line.bt1854997 phases=4 bus1=2134934.1.2.3.4 bus2=2134962.1.2.3.4 length=0.0005 units=km linecode=BT307_BT307_7_3_1_4
New line.bt1855004 phases=4 bus1=2134962.1.2.3.4 bus2=2134969.1.2.3.4 length=0.032182 units=km linecode=BT803_BT803_4_3_4_4
New line.bt1855011 phases=4 bus1=2134969.1.2.3.4 bus2=2134976.1.2.3.4 length=0.032182 units=km linecode=BT803_BT803_4_3_4_4
New line.bt1855018 phases=4 bus1=2134983.1.2.3.4 bus2=2134948.1.2.3.4 length=0.004997 units=km linecode=BT108_BT107_7_3_1_4
New line.bt1855025 phases=4 bus1=2134983.1.2.3.4 bus2=2134990.1.2.3.4 length=0.004997 units=km linecode=BT803_BT803_4_3_4_4
New line.bt1855032 phases=4 bus1=2134983.1.2.3.4 bus2=2135004.1.2.3.4 length=0.023586 units=km linecode=BT803_BT803_4_3_4_4
New line.bt1855039 phases=4 bus1=2134990.1.2.3.4 bus2=2134997.1.2.3.4 length=0.031381 units=km linecode=BT803_BT803_4_3_4_4
New line.bt1855046 phases=4 bus1=2135011.1.2.3.4 bus2=2134983.1.2.3.4 length=0.019198 units=km linecode=BT108_BT107_7_3_1_4
New line.bt1855053 phases=4 bus1=2135011.1.2.3.4 bus2=2135018.1.2.3.4 length=0.028582999999999997 units=km linecode=BT810_BT810_4_3_4_4
New line.bt1855060 phases=4 bus1=2135011.1.2.3.4 bus2=2135039.1.2.3.4 length=0.0064 units=km linecode=BT810_BT810_4_3_4_4
New line.bt1855067 phases=4 bus1=2135018.1.2.3.4 bus2=2135025.1.2.3.4 length=0.02219 units=km linecode=BT810_BT810_4_3_4_4
New line.bt1855074 phases=4 bus1=2135025.1.2.3.4 bus2=2135032.1.2.3.4 length=0.027786 units=km linecode=BT810_BT810_4_3_4_4
New line.bt1855081 phases=4 bus1=2135039.1.2.3.4 bus2=2135046.1.2.3.4 length=0.031603 units=km linecode=BT810_BT810_4_3_4_4
New line.bt1855088 phases=4 bus1=2135046.1.2.3.4 bus2=2135053.1.2.3.4 length=0.029981 units=km linecode=BT810_BT810_4_3_4_4
New line.bt1855235 phases=4 bus1=2135200.1.2.3.4 bus2=2135207.1.2.3.4 length=0.0005 units=km linecode=BT311_BT311_7_3_1_4
New line.bt1855249 phases=4 bus1=2137244.1.2.3.4 bus2=2137237.1.2.3.4 length=0.030787 units=km linecode=BT108_BT107_7_3_1_4
New line.bt1855277 phases=4 bus1=2135242.1.2.3.4 bus2=2135235.1.2.3.4 length=0.029393 units=km linecode=BT108_BT108_7_3_1_4
New line.bt1855284 phases=4 bus1=2135256.1.2.3.4 bus2=2135249.1.2.3.4 length=0.025791 units=km linecode=BT107_BT106_7_3_1_4
New line.bt1855291 phases=4 bus1=2135263.1.2.3.4 bus2=2135242.1.2.3.4 length=0.032182 units=km linecode=BT108_BT108_7_3_1_4
New line.bt1855298 phases=4 bus1=2135270.1.2.3.4 bus2=2135256.1.2.3.4 length=0.019988 units=km linecode=BT107_BT106_7_3_1_4
New line.bt1855305 phases=4 bus1=2135270.1.2.3.4 bus2=2135263.1.2.3.4 length=0.007207 units=km linecode=BT108_BT108_7_3_1_4
New line.bt1855312 phases=4 bus1=2135270.1.2.3.4 bus2=2135277.1.2.3.4 length=0.008058 units=km linecode=BT107_BT106_7_3_1_4
New line.bt1855319 phases=4 bus1=2135284.1.2.3.4 bus2=2135270.1.2.3.4 length=0.021388 units=km linecode=BT108_BT108_7_3_1_4
New line.bt1855326 phases=4 bus1=2135291.1.2.3.4 bus2=2135284.1.2.3.4 length=0.030787 units=km linecode=BT108_BT108_7_3_1_4
New line.bt1855333 phases=4 bus1=2135298.1.2.3.4 bus2=2135291.1.2.3.4 length=0.030787 units=km linecode=BT108_BT108_7_3_1_4
New line.bt1855340 phases=4 bus1=2135228.1.2.3.4 bus2=2135298.1.2.3.4 length=0.0005 units=km linecode=BT513_BT513_7_3_1_4
New line.bt1855347 phases=4 bus1=2135298.1.2.3.4 bus2=2135312.1.2.3.4 length=0.028 units=km linecode=BT108_BT108_7_3_1_4
New line.bt1855354 phases=4 bus1=2135312.1.2.3.4 bus2=2135326.1.2.3.4 length=0.019198 units=km linecode=BT108_BT108_7_3_1_4
New line.bt1855361 phases=4 bus1=2135319.1.2.3.4 bus2=2135305.1.2.3.4 length=0.028582999999999997 units=km linecode=BT107_BT106_7_3_1_4
New line.bt1855368 phases=4 bus1=2135326.1.2.3.4 bus2=2135319.1.2.3.4 length=0.01859 units=km linecode=BT107_BT106_7_3_1_4
New line.bt1855375 phases=4 bus1=2135326.1.2.3.4 bus2=2135333.1.2.3.4 length=0.01081 units=km linecode=BT108_BT108_7_3_1_4
New line.bt1855382 phases=4 bus1=2135326.1.2.3.4 bus2=2135340.1.2.3.4 length=0.014990999999999999 units=km linecode=BT107_BT106_7_3_1_4
New line.bt1855389 phases=4 bus1=2135347.1.2.3.4 bus2=163910598.1.2.3.4 length=0.024398 units=km linecode=BT803_BT803_4_3_4_4
New line.bt1855396 phases=4 bus1=2135347.1.2.3.4 bus2=2135354.1.2.3.4 length=0.037988999999999995 units=km linecode=BT803_BT803_4_3_4_4
New line.bt1855641 phases=4 bus1=2135585.1.2.3.4 bus2=2135592.1.2.3.4 length=0.0005 units=km linecode=BT514_BT514_7_3_1_4
New line.bt1855655 phases=4 bus1=2135613.1.2.3.4 bus2=2135620.1.2.3.4 length=0.0005 units=km linecode=BT312_BT312_7_3_1_4
New line.bt1855669 phases=4 bus1=2135627.1.2.3.4 bus2=2135634.1.2.3.4 length=0.0005 units=km linecode=BT312_BT312_7_3_1_4
New line.bt1855739 phases=4 bus1=2135802.1.2.3.4 bus2=2135809.1.2.3.4 length=0.0005 units=km linecode=BT309_BT309_7_3_1_4
New line.bt1856712 phases=4 bus1=2136719.1.2.3.4 bus2=2136705.1.2.3.4 length=0.032182 units=km linecode=BT108_BT107_7_3_1_4
New line.bt1856719 phases=4 bus1=2136726.1.2.3.4 bus2=2136712.1.2.3.4 length=0.032782 units=km linecode=BT107_BT106_7_3_1_4
New line.bt1856726 phases=4 bus1=2136733.1.2.3.4 bus2=2136719.1.2.3.4 length=0.027786 units=km linecode=BT108_BT107_7_3_1_4
New line.bt1856733 phases=4 bus1=2136740.1.2.3.4 bus2=2136726.1.2.3.4 length=0.034978 units=km linecode=BT107_BT106_7_3_1_4
New line.bt1856740 phases=4 bus1=2136747.1.2.3.4 bus2=2136733.1.2.3.4 length=0.009428 units=km linecode=BT108_BT107_7_3_1_4
New line.bt1856747 phases=4 bus1=2136747.1.2.3.4 bus2=2136740.1.2.3.4 length=0.007207 units=km linecode=BT107_BT106_7_3_1_4
New line.bt1856754 phases=4 bus1=2136747.1.2.3.4 bus2=2136754.1.2.3.4 length=0.02219 units=km linecode=BT107_BT106_7_3_1_4
New line.bt1856761 phases=4 bus1=2136754.1.2.3.4 bus2=2136768.1.2.3.4 length=0.028582999999999997 units=km linecode=BT107_BT106_7_3_1_4
New line.bt1856768 phases=4 bus1=2136761.1.2.3.4 bus2=2136747.1.2.3.4 length=0.02219 units=km linecode=BT108_BT107_7_3_1_4
New line.bt1856775 phases=4 bus1=2136775.1.2.3.4 bus2=2136761.1.2.3.4 length=0.030787 units=km linecode=BT108_BT107_7_3_1_4
New line.bt1856782 phases=4 bus1=2136789.1.2.3.4 bus2=2136775.1.2.3.4 length=0.029393 units=km linecode=BT108_BT107_7_3_1_4
New line.bt1856789 phases=4 bus1=2136698.1.2.3.4 bus2=2136789.1.2.3.4 length=0.0005 units=km linecode=BT513_BT513_7_3_1_4
New line.bt1856796 phases=4 bus1=2136789.1.2.3.4 bus2=2136803.1.2.3.4 length=0.028582999999999997 units=km linecode=BT108_BT107_7_3_1_4
New line.bt1856803 phases=4 bus1=2136796.1.2.3.4 bus2=2136782.1.2.3.4 length=0.028582999999999997 units=km linecode=BT107_BT106_7_3_1_4
New line.bt1856810 phases=4 bus1=2136803.1.2.3.4 bus2=2136817.1.2.3.4 length=0.019405000000000002 units=km linecode=BT108_BT107_7_3_1_4
New line.bt1856817 phases=4 bus1=2136810.1.2.3.4 bus2=2136796.1.2.3.4 length=0.032182 units=km linecode=BT107_BT106_7_3_1_4
New line.bt1856824 phases=4 bus1=2136817.1.2.3.4 bus2=2136810.1.2.3.4 length=0.008596999999999999 units=km linecode=BT107_BT106_7_3_1_4
New line.bt1856831 phases=4 bus1=2136817.1.2.3.4 bus2=2136824.1.2.3.4 length=0.012199 units=km linecode=BT108_BT107_7_3_1_4
New line.bt1856838 phases=4 bus1=2136817.1.2.3.4 bus2=2136831.1.2.3.4 length=0.021388 units=km linecode=BT107_BT106_7_3_1_4
New line.bt1856845 phases=4 bus1=2136824.1.2.3.4 bus2=2136845.1.2.3.4 length=0.029393 units=km linecode=BT108_BT107_7_3_1_4
New line.bt1856852 phases=4 bus1=2136831.1.2.3.4 bus2=2136838.1.2.3.4 length=0.028582999999999997 units=km linecode=BT107_BT106_7_3_1_4
New line.bt1856859 phases=4 bus1=2136845.1.2.3.4 bus2=2136852.1.2.3.4 length=0.030787 units=km linecode=BT108_BT107_7_3_1_4
New line.bt1857034 phases=4 bus1=2137104.1.2.3.4 bus2=2137111.1.2.3.4 length=0.0005 units=km linecode=BT309_BT309_7_3_1_4
New line.bt1857055 phases=4 bus1=2137146.1.2.3.4 bus2=2137153.1.2.3.4 length=0.0005 units=km linecode=BT514_BT514_7_3_1_4
New line.bt1857132 phases=4 bus1=2137258.1.2.3.4 bus2=2137244.1.2.3.4 length=0.032182 units=km linecode=BT108_BT107_7_3_1_4
New line.bt1857139 phases=4 bus1=2137265.1.2.3.4 bus2=2137251.1.2.3.4 length=0.027786 units=km linecode=BT107_BT106_7_3_1_4
New line.bt1857146 phases=4 bus1=2137272.1.2.3.4 bus2=2137258.1.2.3.4 length=0.023839 units=km linecode=BT108_BT107_7_3_1_4
New line.bt1857153 phases=4 bus1=2137272.1.2.3.4 bus2=2137265.1.2.3.4 length=0.0064 units=km linecode=BT108_BT107_7_3_1_4
New line.bt1857160 phases=4 bus1=2137272.1.2.3.4 bus2=2137279.1.2.3.4 length=0.0064 units=km linecode=BT108_BT107_7_3_1_4
New line.bt1857167 phases=4 bus1=2137279.1.2.3.4 bus2=2137307.1.2.3.4 length=0.036597000000000005 units=km linecode=BT108_BT107_7_3_1_4
New line.bt1857174 phases=4 bus1=2137293.1.2.3.4 bus2=2137272.1.2.3.4 length=0.023008 units=km linecode=BT108_BT107_7_3_1_4
New line.bt1857181 phases=4 bus1=2137300.1.2.3.4 bus2=2137293.1.2.3.4 length=0.027186 units=km linecode=BT108_BT107_7_3_1_4
New line.bt1857188 phases=4 bus1=2137307.1.2.3.4 bus2=2137328.1.2.3.4 length=0.017193999999999997 units=km linecode=BT108_BT107_7_3_1_4
New line.bt1857195 phases=4 bus1=2137314.1.2.3.4 bus2=2137286.1.2.3.4 length=0.030787 units=km linecode=BT107_BT106_7_3_1_4
New line.bt1857202 phases=4 bus1=2137321.1.2.3.4 bus2=2137300.1.2.3.4 length=0.032182 units=km linecode=BT108_BT107_7_3_1_4
New line.bt1857209 phases=4 bus1=2137230.1.2.3.4 bus2=2137321.1.2.3.4 length=0.0005 units=km linecode=BT309_BT309_7_3_1_4
New line.bt1857216 phases=4 bus1=2137321.1.2.3.4 bus2=2137335.1.2.3.4 length=0.010624 units=km linecode=BT108_BT107_7_3_1_4
New line.bt1857223 phases=4 bus1=2137328.1.2.3.4 bus2=2137349.1.2.3.4 length=0.016391 units=km linecode=BT108_BT107_7_3_1_4
New line.bt1857237 phases=4 bus1=2137335.1.2.3.4 bus2=2137314.1.2.3.4 length=0.023839 units=km linecode=BT107_BT106_7_3_1_4
New line.bt1857244 phases=4 bus1=2137335.1.2.3.4 bus2=2137342.1.2.3.4 length=0.009214 units=km linecode=BT107_BT106_7_3_1_4
New line.bt1857251 phases=4 bus1=2137335.1.2.3.4 bus2=2137356.1.2.3.4 length=0.01859 units=km linecode=BT108_BT107_7_3_1_4
New line.bt1857258 phases=4 bus1=2137342.1.2.3.4 bus2=2137370.1.2.3.4 length=0.032182 units=km linecode=BT107_BT106_7_3_1_4
New line.bt1857265 phases=4 bus1=2137356.1.2.3.4 bus2=2137363.1.2.3.4 length=0.032182 units=km linecode=BT108_BT107_7_3_1_4
New line.bt1857272 phases=4 bus1=2137370.1.2.3.4 bus2=2137377.1.2.3.4 length=0.034387999999999995 units=km linecode=BT107_BT106_7_3_1_4
New line.bt1857454 phases=4 bus1=2140618.1.2.3.4 bus2=2140604.1.2.3.4 length=0.029981 units=km linecode=BT803_BT803_4_3_4_4
New line.bt1857853 phases=4 bus1=2137965.1.2.3.4 bus2=2137958.1.2.3.4 length=0.028 units=km linecode=BT803_BT803_4_3_4_4
New line.bt1857860 phases=4 bus1=2137979.1.2.3.4 bus2=2137972.1.2.3.4 length=0.028 units=km linecode=BT810_BT810_4_3_4_4
New line.bt1857867 phases=4 bus1=2137986.1.2.3.4 bus2=2137965.1.2.3.4 length=0.034387999999999995 units=km linecode=BT803_BT803_4_3_4_4
...
