ULAE714/ramlig_ULAE714.dss
New line.ram2896723 phases=2 bus1=2140646.1.4 bus2=4002896723.1.4 length=0.017 units=km linecode=CABBTG01_4_1_2
New line.ram3000309 phases=3 bus1=2125694.2.3.4 bus2=4003000309.2.3.4 length=0.017 units=km linecode=CABBTG05_4_2_3
New line.ram3001079 phases=4 bus1=2125659.1.2.3.4 bus2=4003001079.1.2.3.4 length=0.017 units=km linecode=CABBTG07_4_3_4
New line.ram3001086 phases=3 bus1=2125659.3.1.4 bus2=4003001086.3.1.4 length=0.017 units=km linecode=CABBTG05_4_2_3
New line.ram3001093 phases=4 bus1=2125659.1.2.3.4 bus2=4003001093.1.2.3.4 length=0.017 units=km linecode=CABBTG07_4_3_4
New line.ram3001100 phases=4 bus1=2125659.1.2.3.4 bus2=4003001100.1.2.3.4 length=0.017 units=km linecode=CABBTG07_4_3_4
New line.ram3001107 phases=3 bus1=2125659.2.3.4 bus2=4003001107.2.3.4 length=0.017 units=km linecode=CABBTG05_4_2_3
New line.ram3001114 phases=3 bus1=2125666.2.3.4 bus2=4003001114.2.3.4 length=0.017 units=km linecode=CABBTG05_4_2_3
New line.ram3001128 phases=3 bus1=2125687.2.3.4 bus2=4003001128.2.3.4 length=0.017 units=km linecode=CABBTG05_4_2_3
New line.ram3001135 phases=3 bus1=2125687.2.3.4 bus2=4003001135.2.3.4 length=0.017 units=km linecode=CABBTG05_4_2_3
New line.ram3001142 phases=3 bus1=2125687.2.3.4 bus2=4003001142.2.3.4 length=0.017 units=km linecode=CABBTG05_4_2_3
New line.ram3001149 phases=4 bus1=2125687.1.2.3.4 bus2=4003001149.1.2.3.4 length=0.017 units=km linecode=CABBTG07_4_3_4
New line.ram3001156 phases=3 bus1=2125687.3.1.4 bus2=4003001156.3.1.4 length=0.017 units=km linecode=CABBTG05_4_2_3
New line.ram3001163 phases=3 bus1=2125687.3.1.4 bus2=4003001163.3.1.4 length=0.017 units=km linecode=CABBTG05_4_2_3
New line.ram3001177 phases=3 bus1=2125694.2.3.4 bus2=4003001177.2.3.4 length=0.017 units=km linecode=CABBTG05_4_2_3
New line.ram3001184 phases=3 bus1=2125701.3.1.4 bus2=4003001184.3.1.4 length=0.017 units=km linecode=CABBTG05_4_2_3
New line.ram3001191 phases=3 bus1=2125701.3.1.4 bus2=4003001191.3.1.4 length=0.017 units=km linecode=CABBTG05_4_2_3
New line.ram3001198 phases=3 bus1=2125701.1.2.4 bus2=4003001198.1.2.4 length=0.017 units=km linecode=CABBTG05_4_2_3
New line.ram3001205 phases=3 bus1=2125701.1.2.4 bus2=4003001205.1.2.4 length=0.017 units=km linecode=CABBTG05_4_2_3
New line.ram3001212 phases=3 bus1=2125708.2.3.4 bus2=4003001212.2.3.4 length=0.017 units=km linecode=CABBTG05_4_2_3
New line.ram3001219 phases=3 bus1=2125708.3.1.4 bus2=4003001219.3.1.4 length=0.017 units=km linecode=CABBTG05_4_2_3
New line.ram3001226 phases=3 bus1=2125708.2.3.4 bus2=4003001226.2.3.4 length=0.017 units=km linecode=CABBTG05_4_2_3
New line.ram3001233 phases=3 bus1=2125715.1.2.4 bus2=4003001233.1.2.4 length=0.017 units=km linecode=CABBTG05_4_2_3
New line.ram3001240 phases=3 bus1=2125715.2.3.4 bus2=4003001240.2.3.4 length=0.017 units=km linecode=CABBTG05_4_2_3
New line.ram3001247 phases=3 bus1=2125729.3.1.4 bus2=4003001247.3.1.4 length=0.017 units=km linecode=CABBTG05_4_2_3
New line.ram3001254 phases=3 bus1=2125729.1.2.4 bus2=4003001254.1.2.4 length=0.017 units=km linecode=CABBTG05_4_2_3
New line.ram3001261 phases=4 bus1=2125736.1.2.3.4 bus2=4003001261.1.2.3.4 length=0.017 units=km linecode=CABBTG07_4_3_4
New line.ram3001268 phases=3 bus1=2125743.1.2.4 bus2=4003001268.1.2.4 length=0.017 units=km linecode=CABBTG05_4_2_3
New line.ram3001275 phases=3 bus1=2125743.1.2.4 bus2=4003001275.1.2.4 length=0.017 units=km linecode=CABBTG05_4_2_3
New line.ram3001282 phases=4 bus1=2125750.1.2.3.4 bus2=4003001282.1.2.3.4 length=0.017 units=km linecode=CABBTG07_4_3_4
New line.ram3001289 phases=4 bus1=2125750.1.2.3.4 bus2=4003001289.1.2.3.4 length=0.017 units=km linecode=CABBTG07_4_3_4
New line.ram3001296 phases=3 bus1=2125750.1.2.4 bus2=4003001296.1.2.4 length=0.017 units=km linecode=CABBTG05_4_2_3
New line.ram3001303 phases=3 bus1=2125750.3.1.4 bus2=4003001303.3.1.4 length=0.017 units=km linecode=CABBTG05_4_2_3
New line.ram3001310 phases=4 bus1=2125757.1.2.3.4 bus2=4003001310.1.2.3.4 length=0.017 units=km linecode=CABBTG07_4_3_4
New line.ram3001317 phases=4 bus1=2125757.1.2.3.4 bus2=4003001317.1.2.3.4 length=0.017 units=km linecode=CABBTG07_4_3_4
New line.ram3001331 phases=4 bus1=2125757.1.2.3.4 bus2=4003001331.1.2.3.4 length=0.017 units=km linecode=CABBTG07_4_3_4
New line.ram3001338 phases=3 bus1=2125764.1.2.4 bus2=4003001338.1.2.4 length=0.017 units=km linecode=CABBTG05_4_2_3
New line.ram3005069 phases=4 bus1=2128060.1.2.3.4 bus2=4003005069.1.2.3.4 length=0.017 units=km linecode=CABBTG07_4_3_4
New line.ram3005076 phases=3 bus1=2128060.1.2.4 bus2=4003005076.1.2.4 length=0.017 units=km linecode=CABBTG05_4_2_3
New line.ram3005083 phases=3 bus1=2128060.1.2.4 bus2=4003005083.1.2.4 length=0.017 units=km linecode=CABBTG05_4_2_3
New line.ram3005090 phases=3 bus1=2128067.3.1.4 bus2=4003005090.3.1.4 length=0.017 units=km linecode=CABBTG05_4_2_3
New line.ram3005097 phases=3 bus1=2128067.1.2.4 bus2=4003005097.1.2.4 length=0.017 units=km linecode=CABBTG05_4_2_3
New line.ram3005104 phases=4 bus1=2128081.1.2.3.4 bus2=4003005104.1.2.3.4 length=0.017 units=km linecode=CABBTG07_4_3_4
New line.ram3005111 phases=4 bus1=2128081.1.2.3.4 bus2=4003005111.1.2.3.4 length=0.017 units=km linecode=CABBTG07_4_3_4
New line.ram3005118 phases=3 bus1=2128088.1.2.4 bus2=4003005118.1.2.4 length=0.017 units=km linecode=CABBTG05_4_2_3
New line.ram3005125 phases=3 bus1=2128088.3.1.4 bus2=4003005125.3.1.4 length=0.017 units=km linecode=CABBTG05_4_2_3
New line.ram3005132 phases=3 bus1=2128088.2.3.4 bus2=4003005132.2.3.4 length=0.017 units=km linecode=CABBTG05_4_2_3
New line.ram3005139 phases=3 bus1=2128109.2.3.4 bus2=4003005139.2.3.4 length=0.017 units=km linecode=CABBTG05_4_2_3
New line.ram3005146 phases=3 bus1=2128123.1.2.4 bus2=4003005146.1.2.4 length=0.017 units=km linecode=CABBTG05_4_2_3
New line.ram3005153 phases=4 bus1=2128123.1.2.3.4 bus2=4003005153.1.2.3.4 length=0.017 units=km linecode=CABBTG07_4_3_4
New line.ram3005160 phases=3 bus1=2128123.3.1.4 bus2=4003005160.3.1.4 length=0.017 units=km linecode=CABBTG05_4_2_3
New line.ram3005167 phases=3 bus1=2128130.2.3.4 bus2=4003005167.2.3.4 length=0.017 units=km linecode=CABBTG05_4_2_3
New line.ram3005174 phases=3 bus1=2128165.2.3.4 bus2=4003005174.2.3.4 length=0.017 units=km linecode=CABBTG05_4_2_3
New line.ram3005181 phases=3 bus1=2128165.2.3.4 bus2=4003005181.2.3.4 length=0.017 units=km linecode=CABBTG05_4_2_3
New line.ram3005188 phases=3 bus1=2128165.3.1.4 bus2=4003005188.3.1.4 length=0.017 units=km linecode=CABBTG05_4_2_3
New line.ram3005195 phases=3 bus1=2128165.2.3.4 bus2=4003005195.2.3.4 length=0.017 units=km linecode=CABBTG05_4_2_3
New line.ram3005202 phases=3 bus1=2128186.1.2.4 bus2=4003005202.1.2.4 length=0.017 units=km linecode=CABBTG05_4_2_3
New line.ram3005209 phases=3 bus1=2128186.1.2.4 bus2=4003005209.1.2.4 length=0.017 units=km linecode=CABBTG05_4_2_3
New line.ram3005216 phases=4 bus1=2128186.1.2.3.4 bus2=4003005216.1.2.3.4 length=0.017 units=km linecode=CABBTG07_4_3_4
New line.ram3005223 phases=3 bus1=2128193.3.1.4 bus2=4003005223.3.1.4 length=0.017 units=km linecode=CABBTG05_4_2_3
New line.ram3009430 phases=3 bus1=2135235.1.2.4 bus2=4003009430.1.2.4 length=0.017 units=km linecode=CABBTG05_4_2_3
New line.ram3009437 phases=3 bus1=2135235.3.1.4 bus2=4003009437.3.1.4 length=0.017 units=km linecode=CABBTG05_4_2_3
New line.ram3009444 phases=3 bus1=2135235.2.3.4 bus2=4003009444.2.3.4 length=0.017 units=km linecode=CABBTG05_4_2_3
New line.ram3009451 phases=3 bus1=2135235.2.3.4 bus2=4003009451.2.3.4 length=0.017 units=km linecode=CABBTG05_4_2_3
New line.ram3009836 phases=4 bus1=2130951.1.2.3.4 bus2=4003009836.1.2.3.4 length=0.017 units=km linecode=CABBTG07_4_3_4
New line.ram3009843 phases=4 bus1=2130951.1.2.3.4 bus2=4003009843.1.2.3.4 length=0.017 units=km linecode=CABBTG07_4_3_4
New line.ram3009850 phases=4 bus1=2130965.1.2.3.4 bus2=4003009850.1.2.3.4 length=0.017 units=km linecode=CABBTG06_4_3_4
New line.ram3009857 phases=3 bus1=2130965.2.3.4 bus2=4003009857.2.3.4 length=0.017 units=km linecode=CABBTG05_4_2_3
New line.ram3009864 phases=4 bus1=2130972.1.2.3.4 bus2=4003009864.1.2.3.4 length=0.017 units=km linecode=CABBTG07_4_3_4
New line.ram3009871 phases=4 bus1=2130972.1.2.3.4 bus2=4003009871.1.2.3.4 length=0.017 units=km linecode=CABBTG07_4_3_4
New line.ram3009878 phases=3 bus1=2130979.2.3.4 bus2=4003009878.2.3.4 length=0.017 units=km linecode=CABBTG05_4_2_3
New line.ram3009885 phases=3 bus1=2130979.1.2.4 bus2=4003009885.1.2.4 length=0.017 units=km linecode=CABBTG05_4_2_3
New line.ram3009892 phases=4 bus1=2130979.1.2.3.4 bus2=4003009892.1.2.3.4 length=0.017 units=km linecode=CABBTG07_4_3_4
New line.ram3009899 phases=3 bus1=2130993.1.2.4 bus2=4003009899.1.2.4 length=0.017 units=km linecode=CABBTG05_4_2_3
New line.ram3009906 phases=4 bus1=2131021.1.2.3.4 bus2=4003009906.1.2.3.4 length=0.017 units=km linecode=CABBTG06_4_3_4
New line.ram3009913 phases=3 bus1=2131021.2.3.4 bus2=4003009913.2.3.4 length=0.017 units=km linecode=CABBTG05_4_2_3
New line.ram3009920 phases=3 bus1=2131021.1.2.4 bus2=4003009920.1.2.4 length=0.017 units=km linecode=CABBTG05_4_2_3
New line.ram3009927 phases=3 bus1=2131021.2.3.4 bus2=4003009927.2.3.4 length=0.017 units=km linecode=CABBTG05_4_2_3
New line.ram3009934 phases=3 bus1=2131028.2.3.4 bus2=4003009934.2.3.4 length=0.017 units=km linecode=CABBTG05_4_2_3
New line.ram3009941 phases=3 bus1=2131028.1.2.4 bus2=4003009941.1.2.4 length=0.017 units=km linecode=CABBTG05_4_2_3
New line.ram3009948 phases=2 bus1=2131021.2.4 bus2=4003009948.2.4 length=0.017 units=km linecode=CABBTG01_4_1_2
New line.ram3009955 phases=3 bus1=2131035.2.3.4 bus2=4003009955.2.3.4 length=0.017 units=km linecode=CABBTG05_4_2_3
New line.ram3009962 phases=3 bus1=2131035.1.2.4 bus2=4003009962.1.2.4 length=0.017 units=km linecode=CABBTG05_4_2_3
New line.ram3009969 phases=4 bus1=2131035.1.2.3.4 bus2=4003009969.1.2.3.4 length=0.017 units=km linecode=CABBTG07_4_3_4
New line.ram3013553 phases=4 bus1=2133093.1.2.3.4 bus2=4003013553.1.2.3.4 length=0.017 units=km linecode=CABBTG06_4_3_4
New line.ram3013560 phases=3 bus1=2133093.2.3.4 bus2=4003013560.2.3.4 length=0.017 units=km linecode=CABBTG05_4_2_3
New line.ram3013567 phases=3 bus1=2133100.3.1.4 bus2=4003013567.3.1.4 length=0.017 units=km linecode=CABBTG05_4_2_3
New line.ram3013574 phases=4 bus1=2133100.1.2.3.4 bus2=4003013574.1.2.3.4 length=0.017 units=km linecode=CABBTG07_4_3_4
New line.ram3013581 phases=3 bus1=2133107.2.3.4 bus2=4003013581.2.3.4 length=0.017 units=km linecode=CABBTG05_4_2_3
New line.ram3013588 phases=3 bus1=2133107.1.2.4 bus2=4003013588.1.2.4 length=0.017 units=km linecode=CABBTG05_4_2_3
New line.ram3013595 phases=3 bus1=2133107.1.2.4 bus2=4003013595.1.2.4 length=0.017 units=km linecode=CABBTG05_4_2_3
...