ULAE714/ucbt_ULAE714.dss
New load.bt600194-1 phases=3 bus=1003026853.1.2.3.4 model=2 kv=0.22 kw=4.017681506849316 pf=0.92 conn=delta status=variable vmaxpu=1.5 vminpu=0.92 daily=COM1_1
New load.bt600194-2 phases=3 bus=1003026853.1.2.3.4 model=3 kv=0.22 kw=4.017681506849316 pf=0.92 conn=delta status=variable vmaxpu=1.5 vminpu=0.92 daily=COM1_1
New load.bt600328-1 phases=3 bus=1003028064.1.2.3.4 model=2 kv=0.22 kw=3.6034971461187215 pf=0.92 conn=delta status=variable vmaxpu=1.5 vminpu=0.92 daily=COM1_1
New load.bt600328-2 phases=3 bus=1003028064.1.2.3.4 model=3 kv=0.22 kw=3.6034971461187215 pf=0.92 conn=delta status=variable vmaxpu=1.5 vminpu=0.92 daily=COM1_1
New load.bt600637-1 phases=3 bus=1011382324.1.2.3.4 model=2 kv=0.22 kw=2.9654406392694064 pf=0.92 conn=delta status=variable vmaxpu=1.5 vminpu=0.92 daily=COM1_1
New load.bt600637-2 phases=3 bus=1011382324.1.2.3.4 model=3 kv=0.22 kw=2.9654406392694064 pf=0.92 conn=delta status=variable vmaxpu=1.5 vminpu=0.92 daily=COM1_1
New load.bt600671-1 phases=3 bus=1003044514.1.2.3.4 model=2 kv=0.22 kw=2.3964914383561644 pf=0.92 conn=delta status=variable vmaxpu=1.5 vminpu=0.92 daily=COM1_1
New load.bt600671-2 phases=3 bus=1003044514.1.2.3.4 model=3 kv=0.22 kw=2.3964914383561644 pf=0.92 conn=delta status=variable vmaxpu=1.5 vminpu=0.92 daily=COM1_1
New load.bt602961-1 phases=3 bus=1011382324.1.2.3.4 model=2 kv=0.22 kw=1.2125245433789953 pf=0.92 conn=delta status=variable vmaxpu=1.5 vminpu=0.92 daily=COM1_1
New load.bt602961-2 phases=3 bus=1011382324.1.2.3.4 model=3 kv=0.22 kw=1.2125245433789953 pf=0.92 conn=delta status=variable vmaxpu=1.5 vminpu=0.92 daily=COM1_1
New load.bt607802-1 phases=3 bus=1003028050.1.2.3.4 model=2 kv=0.22 kw=0.4862614155251141 pf=0.92 conn=delta status=variable vmaxpu=1.5 vminpu=0.92 daily=IND1_1
New load.bt607802-2 phases=3 bus=1003028050.1.2.3.4 model=3 kv=0.22 kw=0.4862614155251141 pf=0.92 conn=delta status=variable vmaxpu=1.5 vminpu=0.92 daily=IND1_1
New load.bt613338-1 phases=3 bus=1003036954.1.2.3.4 model=2 kv=0.22 kw=0.4000348173515982 pf=0.92 conn=delta status=variable vmaxpu=1.5 vminpu=0.92 daily=IND1_1
New load.bt613338-2 phases=3 bus=1003036954.1.2.3.4 model=3 kv=0.22 kw=0.4000348173515982 pf=0.92 conn=delta status=variable vmaxpu=1.5 vminpu=0.92 daily=IND1_1
New load.bt615448-1 phases=3 bus=1003037108.1.2.3.4 model=2 kv=0.22 kw=0.33087614155251144 pf=0.92 conn=delta status=variable vmaxpu=1.5 vminpu=0.92 daily=COM1_1
New load.bt615448-2 phases=3 bus=1003037108.1.2.3.4 model=3 kv=0.22 kw=0.33087614155251144 pf=0.92 conn=delta status=variable vmaxpu=1.5 vminpu=0.92 daily=COM1_1
New load.bt615548-1 phases=3 bus=1003017137.1.2.3.4 model=2 kv=0.22 kw=0.3444086757990868 pf=0.92 conn=delta status=variable vmaxpu=1.5 vminpu=0.92 daily=COM1_15
New load.bt615548-2 phases=3 bus=1003017137.1.2.3.4 model=3 kv=0.22 kw=0.3444086757990868 pf=0.92 conn=delta status=variable vmaxpu=1.5 vminpu=0.92 daily=COM1_15
New load.bt620532-1 phases=3 bus=1003027525.1.2.3.4 model=2 kv=0.22 kw=0.028253424657534245 pf=0.92 conn=delta status=variable vmaxpu=1.5 vminpu=0.92 daily=COM1_1
New load.bt620532-2 phases=3 bus=1003027525.1.2.3.4 model=3 kv=0.22 kw=0.028253424657534245 pf=0.92 conn=delta status=variable vmaxpu=1.5 vminpu=0.92 daily=COM1_1
New load.bt622615-1 phases=1 bus=1003037038.3.1.4 model=2 kv=0.22 kw=0.2874366438356164 pf=0.92 conn=delta status=variable vmaxpu=1.5 vminpu=0.92 daily=RES1_1
New load.bt622615-2 phases=1 bus=1003037038.3.1.4 model=3 kv=0.22 kw=0.2874366438356164 pf=0.92 conn=delta status=variable vmaxpu=1.5 vminpu=0.92 daily=RES1_1
New load.bt624233-1 phases=1 bus=1003036884.2.3.4 model=2 kv=0.22 kw=0.3129389269406393 pf=0.92 conn=delta status=variable vmaxpu=1.5 vminpu=0.92 daily=RES1_1
New load.bt624233-2 phases=1 bus=1003036884.2.3.4 model=3 kv=0.22 kw=0.3129389269406393 pf=0.92 conn=delta status=variable vmaxpu=1.5 vminpu=0.92 daily=RES1_1
New load.bt624407-1 phases=1 bus=1003023801.1.2.4 model=2 kv=0.22 kw=0.07081392694063927 pf=0.92 conn=delta status=variable vmaxpu=1.5 vminpu=0.92 daily=COM1_1
New load.bt624407-2 phases=1 bus=1003023801.1.2.4 model=3 kv=0.22 kw=0.07081392694063927 pf=0.92 conn=delta status=variable vmaxpu=1.5 vminpu=0.92 daily=COM1_1
New load.bt626793-1 phases=3 bus=1003023808.1.2.3.4 model=2 kv=0.22 kw=0.8111946347031964 pf=0.92 conn=delta status=variable vmaxpu=1.5 vminpu=0.92 daily=COM1_1
New load.bt626793-2 phases=3 bus=1003023808.1.2.3.4 model=3 kv=0.22 kw=0.8111946347031964 pf=0.92 conn=delta status=variable vmaxpu=1.5 vminpu=0.92 daily=COM1_1
New load.bt626889-1 phases=1 bus=1003029002.2.3.4 model=2 kv=0.22 kw=0.23162956621004566 pf=0.92 conn=delta status=variable vmaxpu=1.5 vminpu=0.92 daily=RES1_1
New load.bt626889-2 phases=1 bus=1003029002.2.3.4 model=3 kv=0.22 kw=0.23162956621004566 pf=0.92 conn=delta status=variable vmaxpu=1.5 vminpu=0.92 daily=RES1_1
New load.bt627655-1 phases=3 bus=1011382324.1.2.3.4 model=2 kv=0.22 kw=0.2903881278538813 pf=0.92 conn=delta status=variable vmaxpu=1.5 vminpu=0.92 daily=COM1_1
...